REMARK  0 active torsions:
REMARK  status: ('A' for Active; 'I' for Inactive)
ROOT
ATOM      1  C1  <0> d          -0.017   1.380   0.010  0.00  0.00     0.045 A 
ATOM      2  C2  <0> d           1.170   2.085   0.002  0.00  0.00     0.040 A 
ATOM      3  C3  <0> d           2.385   1.410  -0.012  0.00  0.00     0.078 A 
ATOM      4  C4  <0> d           2.403   0.025  -0.017  0.00  0.00     0.016 A 
ATOM      5  C5  <0> d           1.210  -0.678  -0.011  0.00  0.00     0.055 A 
ATOM      6  C6  <0> d           0.002  -0.004   0.002  0.00  0.00     0.117 A 
ATOM      7  F1  <0> d          -1.158  -0.696   0.008  0.00  0.00    -0.206 F 
ATOM      8  C7  <0> d           3.699  -0.736  -0.023  0.00  0.00     0.148 A 
ATOM      9  C8  <0> d           4.855   0.170  -0.437  0.00  0.00     0.073 C 
ATOM     10  C9  <0> d           4.746   1.482   0.351  0.00  0.00     0.179 C 
ATOM     11  O1  <0> d           3.534   2.136  -0.025  0.00  0.00    -0.350 OA
ATOM     12  C10 <0> d           3.963  -1.340   1.337  0.00  0.00     0.259 A 
ATOM     13  O2  <0> d           4.109  -0.750   2.386  0.00  0.00    -0.270 OA
ATOM     14  N1  <0> d           4.001  -2.674   1.137  0.00  0.00    -0.277 N 
ATOM     15  C11 <0> d           3.799  -2.986  -0.149  0.00  0.00     0.324 A 
ATOM     16  O3  <0> d           3.788  -4.124  -0.574  0.00  0.00    -0.247 OA
ATOM     17  N2  <0> d           3.610  -1.897  -0.918  0.00  0.00    -0.320 N 
ATOM     18  H8  <0> d           4.155  -3.326   1.839  0.00  0.00     0.173 HD
ATOM     19  H9  <0> d           3.446  -1.882  -1.874  0.00  0.00     0.165 HD
ENDROOT
TORSDOF 0
